&share
 wrf_core = 'ARW',
 max_dom = 1,
 start_date = '2000-01-01_00:00:00', '2000-01-01_00:00:00', '2000-01-01_00:00:00',
 end_date = '2000-01-02_00:00:00', '2000-01-02_00:00:00', '2000-01-02_00:00:00',
 interval_seconds = 10800
 io_form_geogrid = 2,
/

&geogrid
 parent_id         =   1,    1,    2,
 parent_grid_ratio =   1,    3,    3,
 i_parent_start    =   1,   45,   45,
 j_parent_start    =   1,   32,   34,
 e_we              =  131,  127, 118,
 e_sn              =  101,  109, 100,
 geog_data_res = 'bnu_soil_30s+default'
 dx = 9000,
 dy = 9000,
 map_proj = 'lambert',
 ref_lat   =  45.00,
 ref_lon   =  15.00,
 truelat1  =  45.00,
 truelat2  =  45.00,
 stand_lon =  15.00,
 geog_data_path = '/home/arw/PY/GEOG/'
 opt_geogrid_tbl_path = '.'
/

&ungrib
 out_format = 'WPS',
 prefix = 'FILE',
/

&metgrid
 fg_name = 'FILE'
 io_form_metgrid = 2,
 opt_metgrid_tbl_path = '.'
 constants_name = './TAVGSFC'
/
